Circuit: * /Users/camerontribe/Documents/Projects/HiFiAudio/LTSpice/LowPass.asc

Direct Newton iteration for .op point succeeded.

Date: Wed Apr  8 13:00:10 2015
Total elapsed time: 0.464 seconds.

tnom = 27
temp = 27
method = trap
totiter = 11
traniter = 0
tranpoints = 0
accept = 0
rejected = 0
matrix size = 92
fillins = 64
solver = Normal
Matrix Compiler1:     372 opcodes
Matrix Compiler2:     694 opcodes

