Circuit: * /Users/camerontribe/Documents/Projects/HiFiAudio/LTSpice/use_this_for_simulations_on_Mac_test_doubleBASS.asc

WARNING: Less than two connections to node N012.  This node is used by R26.
WARNING: Less than two connections to node N023.  This node is used by R27.
WARNING: Less than two connections to node NC_01.  This node is used by R28.
WARNING: Less than two connections to node N006.  This node is used by R32.
WARNING: Less than two connections to node N049.  This node is used by R64.
WARNING: Less than two connections to node NC_02.  This node is used by R55.
WARNING: Less than two connections to node NC_03.  This node is used by R56.
WARNING: Less than two connections to node NC_04.  This node is used by R65.
Early termination of direct N-R iteration.
Direct Newton iteration failed to find .op point.  (Use ".option noopiter" to skip.)
Starting Gmin stepping
Gmin = 10
Gmin = 1.07374
vernier = 0.5
vernier = 0.25
vernier = 0.125
vernier = 0.0625
Gmin = 1.08884
vernier = 0.03125
vernier = 0.015625
Gmin = 1.03122
vernier = 0.0078125
vernier = 0.0104167
vernier = 0.00520833
Gmin = 1.01988
vernier = 0.00260417
vernier = 0.00347222
Gmin = 1.01305
vernier = 0.00173611
vernier = 0.00231481
vernier = 0.00115741
Gmin = 1.01085
vernier = 0.00154321
vernier = 0.000771604
Gmin = 1.00871
vernier = 0.00102881
vernier = 0.000514403
Gmin = 1.00715
vernier = 0.00068587
vernier = 0.000514403
Gmin = 1.0059
vernier = 0.00068587
vernier = 0.000514402
Gmin = 0
Gmin stepping failed

Starting source stepping with srcstepmethod=0
Source Step = 3.0303%
Source Step = 33.3333%
Source Step = 63.6364%
Source Step = 93.9394%
Source stepping succeeded in finding the operating point.


Date: Tue Oct 13 23:00:18 2015
Total elapsed time: 3.420 seconds.

tnom = 27
temp = 27
method = trap
totiter = 6297
traniter = 0
tranpoints = 0
accept = 0
rejected = 0
matrix size = 119
fillins = 224
solver = Normal
Matrix Compiler1:    1051 opcodes
Matrix Compiler2: off

