Circuit: *


Date: Sat Mar 19 18:05:58 2016
Total elapsed time: 0.059 seconds.

tnom = 27
temp = 27
method = trap
totiter = 0
traniter = 0
tranpoints = 0
accept = 0
rejected = 0
matrix size = 11
fillins = 1
solver = Normal

